Version 4
SHEET 1 880 680
WIRE 128 -16 -224 -16
WIRE 128 48 128 -16
WIRE 96 64 -48 64
WIRE 192 80 160 80
WIRE 320 80 272 80
WIRE -48 96 -48 64
WIRE 96 96 80 96
WIRE 320 160 320 80
WIRE -224 192 -224 -16
WIRE -16 192 -224 192
WIRE 80 192 80 96
WIRE 80 192 64 192
WIRE -224 208 -224 192
WIRE 80 208 80 192
WIRE -224 304 -224 288
WIRE -48 304 -48 176
WIRE -48 304 -224 304
WIRE 0 304 -48 304
WIRE 80 304 80 288
WIRE 80 304 0 304
WIRE 128 304 128 112
WIRE 128 304 80 304
WIRE 320 304 320 224
WIRE 320 304 128 304
WIRE 0 336 0 304
FLAG 0 336 0
SYMBOL voltage -48 80 R0
WINDOW 123 0 0 Left 2
WINDOW 39 0 0 Left 2
SYMATTR InstName Vref
SYMATTR Value 5
SYMBOL Opamps\\UniversalOpamp2 128 80 R0
SYMATTR InstName U2
SYMBOL voltage -224 192 R0
WINDOW 123 0 0 Left 2
WINDOW 39 0 0 Left 2
SYMATTR InstName V3
SYMATTR Value 5
SYMBOL res 288 64 R90
WINDOW 0 0 56 VBottom 2
WINDOW 3 32 56 VTop 2
SYMATTR InstName R1
SYMATTR Value 330R
SYMBOL LED 304 160 R0
SYMATTR InstName D1
SYMATTR Value NSCW100
SYMATTR Description Diode
SYMATTR Type diode
SYMBOL res 64 192 R0
SYMATTR InstName R2
SYMATTR Value 300R
SYMBOL res 80 176 R90
WINDOW 0 0 56 VBottom 2
WINDOW 3 32 56 VTop 2
SYMATTR InstName R3
SYMATTR Value 10kR
TEXT -80 360 Left 2 !.tran 0 1 0 0.1
